
#######################################################################
#
#                 Cambridge Crystallographic Data Centre
#                                CCDC 
#
#######################################################################
#
# If this CIF has been generated from an entry in the Cambridge 
# Structural Database, then it will include bibliographic, chemical, 
# crystal, experimental, refinement or atomic coordinate data resulting 
# from the CCDC's data processing and validation procedures.
#
#######################################################################

data_hpd961_auto
_symmetry_cell_setting           monoclinic
_symmetry_space_group_name_H-M   'I 2'
_symmetry_Int_Tables_number      5
_space_group_name_Hall           'I 2y'
loop_
_symmetry_equiv_pos_site_id
_symmetry_equiv_pos_as_xyz
1 x,y,z
2 -x,y,-z
3 1/2+x,1/2+y,1/2+z
4 1/2-x,1/2+y,1/2-z
_cell_length_a                   16.5851(2)
_cell_length_b                   7.48218(8)
_cell_length_c                   22.8203(3)
_cell_angle_alpha                90
_cell_angle_beta                 107.8151(13)
_cell_angle_gamma                90
_cell_volume                     2696.04
loop_
_atom_site_label
_atom_site_type_symbol
_atom_site_fract_x
_atom_site_fract_y
_atom_site_fract_z
Si1 Si 1.05766(4) 0.31609(11) 0.69491(3)
O1 O 0.95392(12) 0.3090(3) 0.66414(9)
O3 O 0.68968(12) 0.0759(3) 0.67480(9)
H3 H 0.664574 -0.014470 0.682447
O4 O 0.59877(14) -0.1007(3) 0.48281(10)
O2 O 0.88997(14) 0.2648(3) 0.78809(10)
C7 C 0.90336(17) 0.1517(4) 0.65248(13)
H7 H 0.938210 0.049220 0.674747
C14 C 0.68512(18) -0.2006(4) 0.57990(12)
H14A H 0.717947 -0.303080 0.602630
H14B H 0.635752 -0.181722 0.594934
C6 C 0.87332(18) 0.1104(4) 0.58406(13)
H6A H 0.923030 0.094111 0.569221
H6B H 0.840030 0.212656 0.561585
C21 C 1.08203(19) 0.5578(4) 0.71670(13)
C12 C 0.76528(17) 0.0204(4) 0.66074(12)
C5 C 0.81861(18) -0.0589(4) 0.57034(13)
H5 H 0.853082 -0.157797 0.595300
C18 C 0.7670(2) 0.0451(5) 0.45771(14)
H18A H 0.719109 0.103662 0.466453
H18B H 0.749517 0.003352 0.414960
H18C H 0.813753 0.130397 0.463989
C4 C 0.79628(18) -0.1145(4) 0.50108(13)
C8 C 0.82723(18) 0.1812(4) 0.67844(13)
C11 C 0.80934(18) -0.1199(4) 0.70838(13)
H11 H 0.799800 -0.244887 0.703158
C3 C 0.8739(2) -0.2097(5) 0.49118(14)
H3A H 0.873166 -0.198054 0.447801
H3B H 0.927104 -0.156622 0.518010
C10 C 0.86265(19) -0.0453(5) 0.75802(14)
H10 H 0.894355 -0.107753 0.793913
C15 C 0.6544(2) -0.2434(4) 0.51153(13)
H15 H 0.621783 -0.357902 0.505081
C16 C 0.7290(2) -0.2634(4) 0.48710(13)
C13 C 0.74047(17) -0.0339(4) 0.59239(13)
H13 H 0.706150 0.065945 0.567857
C25 C 0.78776(19) 0.3629(4) 0.66119(14)
H25A H 0.830586 0.455618 0.677253
H25B H 0.741270 0.378544 0.678842
H25C H 0.765777 0.372756 0.616271
C17 C 0.7195(2) -0.3743(5) 0.42991(15)
H17A H 0.664469 -0.434134 0.410850
H17B H 0.748527 -0.332006 0.400494
C20 C 1.0922(2) 0.1691(5) 0.76408(14)
H20A H 1.060187 0.199262 0.792374
H20B H 1.152825 0.186774 0.784820
H20C H 1.081860 0.043855 0.751403
C19 C 1.1088(2) 0.2410(5) 0.63681(15)
H19A H 1.096367 0.114190 0.627583
H19B H 1.170157 0.258063 0.653258
H19C H 1.086579 0.311321 0.599054
C26 C 0.5511(2) -0.1344(6) 0.42047(16)
H26A H 0.522572 -0.250254 0.417578
H26B H 0.589215 -0.136309 0.395034
H26C H 0.508778 -0.040013 0.405845
C2 C 0.8676(2) -0.4072(6) 0.50770(16)
H2A H 0.893596 -0.485379 0.483477
H2B H 0.896004 -0.428246 0.552066
C22 C 1.0478(4) 0.6774(6) 0.66043(19)
H22A H 1.071449 0.639343 0.627993
H22B H 1.064058 0.801647 0.671735
H22C H 0.985923 0.668189 0.645397
C23 C 1.1772(3) 0.5849(7) 0.7427(3)
H23A H 1.199512 0.511322 0.779633
H23B H 1.189266 0.711094 0.753325
H23C H 1.204309 0.549823 0.711797
C1 C 0.7736(2) -0.4416(5) 0.49151(15)
H1 H 0.753263 -0.544967 0.510893
C24 C 1.0412(4) 0.6124(6) 0.7654(2)
H24A H 0.980464 0.585736 0.750571
H24B H 1.049408 0.740799 0.773477
H24C H 1.067463 0.545754 0.803418
C9 C 0.86508(17) 0.1496(5) 0.74884(14)
Cl1A Cl 0.52934(18) -0.6266(3) 0.56308(10)
C27 C 0.500000 -0.7566(10) 0.500000
H27A H 0.452182 -0.834119 0.501245
H27B H 0.547819 -0.834114 0.498755
Cl1B Cl 0.4819(5) -0.6616(8) 0.5745(2)
Cl1A Cl 0.47066(18) -0.6266(3) 0.43692(10)
H27A H 0.547818 -0.834119 0.498755
H27B H 0.452181 -0.834114 0.501245
Cl1B Cl 0.5181(5) -0.6616(8) 0.4255(2)

#END
